LAMMPS (24 Mar 2022)
package gpu 0
package gpu 6
# 3d Lennard-Jones melt

units		lj
atom_style	atomic

read_data	tobemelted.initial.readdata
Reading data file ...
  orthogonal box = (-0.19761599 -0.15873531 -0.17851477) to (9.413447 9.3745663 9.3943458)
  reading atoms ...
  1000 atoms
  reading velocities ...
  1000 velocities

replicate	6 6 1
Replicating atoms ...
  orthogonal box = (-0.19761599 -0.15873531 -0.17851477) to (57.468762 57.041074 9.3943458)
  36000 atoms
  replicate CPU = 0.003 seconds

mass		1 2.0
mass		2 1.0

velocity	all create 1.2 87287

variable	a equal 1.5
variable	b equal 0.35
variable	t equal 1.2
variable	w equal 0.016
variable	p equal 2.0
variable	l equal 30.602501*2/3.0
variable	z equal $l*3
variable	z equal 20.4016673333333*3

#log		log.lammps

variable        bump equal 1.1
#Bump, relative_start relative_end, relative_energy, 4.9s
pair_style      lj/cut/bump 1.4
pair_coeff      1 1 1.0 1.0 1.2 1.0 1.1 1.4
pair_coeff      1 2 1.0 0.9166666666667 1.2 1.0 1.1 1.2833333333
pair_coeff      2 2 1.0 0.8333333333333 1.2 1.0 1.1 1.1666666667

pair_modify	shift yes tail no

neighbor	0.5 bin
neigh_modify	every 10 delay 0 check no

timestep	0.005

thermo		100
thermo_style    custom step temp pe etotal temp vol press pxx pyy pzz pxz lx ly lz enthalpy

dump            3 all xyz 10000 latadump.xyz
dump            4 all custom 100000 lata4olivia id type x y z vx vy vz fx fy fz

fix		1 all nvt temp $t $w 1.0
fix		1 all nvt temp 1.2 $w 1.0
fix		1 all nvt temp 1.2 0.016 1.0
run		1000000

CITE-CITE-CITE-CITE-CITE-CITE-CITE-CITE-CITE-CITE-CITE-CITE-CITE

Your simulation uses code contributions which should be cited:

- GPU package (short-range, long-range and three-body potentials):

@Article{Brown11,
 author = {W. M. Brown, P. Wang, S. J. Plimpton, A. N. Tharrington},
 title = {Implementing Molecular Dynamics on Hybrid High Performance Computers - Short Range Forces},
 journal = {Comp.~Phys.~Comm.},
 year =    2011,
 volume =  182,
 pages =   {898--911}
}

@Article{Brown12,
 author = {W. M. Brown, A. Kohlmeyer, S. J. Plimpton, A. N. Tharrington},
 title = {Implementing Molecular Dynamics on Hybrid High Performance Computers - Particle-Particle Particle-Mesh},
 journal = {Comp.~Phys.~Comm.},
 year =    2012,
 volume =  183,
 pages =   {449--459}
}

@Article{Brown13,
 author = {W. M. Brown, Y. Masako},
 title = {Implementing Molecular Dynamics on Hybrid High Performance Computers â€“ Three-Body Potentials},
 journal = {Comp.~Phys.~Comm.},
 year =    2013,
 volume =  184,
 pages =   {2785--2793}
}

@Article{Trung15,
 author = {T. D. Nguyen, S. J. Plimpton},
 title = {Accelerating dissipative particle dynamics simulations for soft matter systems},
 journal = {Comput.~Mater.~Sci.},
 year =    2015,
 volume =  100,
 pages =   {173--180}
}

@Article{Trung17,
 author = {T. D. Nguyen},
 title = {GPU-accelerated Tersoff potentials for massively parallel Molecular Dynamics simulations},
 journal = {Comp.~Phys.~Comm.},
 year =    2017,
 volume =  212,
 pages =   {113--122}
}

@Article{Nikolskiy19,
 author = {V. Nikolskiy, V. Stegailov},
 title = {GPU acceleration of four-site water models in LAMMPS},
 journal = {Proceeding of the International Conference on Parallel Computing (ParCo 2019), Prague, Czech Republic},
 year =    2019
}

CITE-CITE-CITE-CITE-CITE-CITE-CITE-CITE-CITE-CITE-CITE-CITE-CITE

  generated 0 of 1 mixed pair_coeff terms from geometric mixing rule
Step          Temp          PotEng         TotEng          Temp          Volume         Press           Pxx            Pyy            Pzz            Pxz             Lx             Ly             Lz          Enthalpy
0   1.2           -2.5836418     -0.78369176     1.2            31576.136      1.3773964      1.3747043      1.3682076      1.3892773     -0.028690432    57.666378      57.19981       9.5728605      0.42444315
Averages over the last 5001 of 10001 rows, steps 500000 to 1000000:
Temp PotEng TotEng Temp Volume Press Pxx Pyy Pzz Pxz Lx Ly Lz Enthalpy
0.312179 -2.07711 -1.60886 0.312179 31576.1 1.93777 1.92511 1.95411 1.93409 -0.00122408 57.6664 57.1998 9.57286 0.0907892
Loop time of 330.468 on 6 procs for 1000000 steps with 36000 atoms

#quit

################## Mechanical work ########################

run             0
  generated 0 of 1 mixed pair_coeff terms from geometric mixing rule
Step          Temp          PotEng         TotEng          Temp          Volume         Press           Pxx            Pyy            Pzz            Pxz             Lx             Ly             Lz          Enthalpy
1000000   0.016246208   -2.5762626     -2.551894       0.016246208    31576.136      0.37247021     0.35247988     0.39928727     0.36564347    -0.00074802059  57.666378      57.19981       9.5728605     -2.2251948
Loop time of 3.01383e-06 on 6 procs for 0 steps with 36000 atoms

variable        a equal pxx
variable        b equal pyy
variable        c equal pzz
print           "pxx is $a, pyy is $b, pzz is $c"
pxx is 0.352479879731171, pyy is 0.399287272329836, pzz is 0.365643473281812

unfix           1
fix             1 all npt temp $w $w 1.0 x $a 0.0 1.0 y $b 0.0 1.0 z $c 0.0 1.0
fix             1 all npt temp 0.016 $w 1.0 x $a 0.0 1.0 y $b 0.0 1.0 z $c 0.0 1.0
fix             1 all npt temp 0.016 0.016 1.0 x $a 0.0 1.0 y $b 0.0 1.0 z $c 0.0 1.0
fix             1 all npt temp 0.016 0.016 1.0 x 0.352479879731171 0.0 1.0 y $b 0.0 1.0 z $c 0.0 1.0
fix             1 all npt temp 0.016 0.016 1.0 x 0.352479879731171 0.0 1.0 y 0.399287272329836 0.0 1.0 z $c 0.0 1.0
fix             1 all npt temp 0.016 0.016 1.0 x 0.352479879731171 0.0 1.0 y 0.399287272329836 0.0 1.0 z 0.365643473281812 0.0 1.0
run             20000
  generated 0 of 1 mixed pair_coeff terms from geometric mixing rule
Step          Temp          PotEng         TotEng          Temp          Volume         Press           Pxx            Pyy            Pzz            Pxz             Lx             Ly             Lz          Enthalpy
1000000   0.016246208   -2.5762626     -2.551894       0.016246208    31576.136      0.37247021     0.35247988     0.39928727     0.36564347    -0.00074802059  57.666378      57.19981       9.5728605     -2.2251948
Averages over the last 101 of 201 rows, steps 1010000 to 1020000:
Temp PotEng TotEng Temp Volume Press Pxx Pyy Pzz Pxz Lx Ly Lz Enthalpy
0.0160169 -2.57746 -2.55343 0.0160169 31732.9 0.0928409 0.0879142 0.0994155 0.0911929 -0.00345209 57.7516 57.3085 9.58795 -2.47164
Loop time of 9.6961 on 6 procs for 20000 steps with 36000 atoms

write_data	glass.readdata nocoeff
System init for write_data ...
  generated 0 of 1 mixed pair_coeff terms from geometric mixing rule
