LAMMPS (24 Mar 2022)
package gpu 0
package gpu 6
# 3d Lennard-Jones melt

units		lj
atom_style	atomic

read_data	tobemelted.initial.readdata
Reading data file ...
  orthogonal box = (-0.19761599 -0.15873531 -0.17851477) to (9.413447 9.3745663 9.3943458)
  reading atoms ...
  1000 atoms
  reading velocities ...
  1000 velocities

replicate	2 2 6
Replicating atoms ...
  orthogonal box = (-0.19761599 -0.15873531 -0.17851477) to (19.02451 18.907868 57.258649)
  24000 atoms
  replicate CPU = 0.002 seconds

mass		1 2.0
mass		2 1.0

velocity	all create 1.2 87287

variable	a equal 1.5
variable	b equal 0.35
variable	t equal 1.2
variable	w equal 0.016
variable	p equal 2.0
variable	l equal 30.602501*2/3.0
variable	z equal $l*3
variable	z equal 20.4016673333333*3

variable        bump equal 1.1
#Bump, relative_start relative_end, relative_energy, 4.9s
pair_style      lj/cut/bump 1.4
pair_coeff      1 1 1.0 1.0 1.2 1.0 1.1 1.4
pair_coeff      1 2 1.0 0.9166666666667 1.2 1.0 1.1 1.2833333333
pair_coeff      2 2 1.0 0.8333333333333 1.2 1.0 1.1 1.1666666667

pair_modify	shift yes tail no

neighbor	0.5 bin
neigh_modify	every 10 delay 0 check no

timestep	0.005

thermo		100
thermo_style    custom step temp pe etotal temp vol press pxx pyy pzz pxz lx ly lz enthalpy

reset_timestep	0

dump            3 all xyz 10000 latadump.xyz
dump            4 all custom 100000 lata4olivia id type x y z vx vy vz fx fy fz

fix		1 all nvt temp $t $w 1.0
fix		1 all nvt temp 1.2 $w 1.0
fix		1 all nvt temp 1.2 0.016 1.0
run		1000000

CITE-CITE-CITE-CITE-CITE-CITE-CITE-CITE-CITE-CITE-CITE-CITE-CITE

Your simulation uses code contributions which should be cited:

- GPU package (short-range, long-range and three-body potentials):

@Article{Brown11,
 author = {W. M. Brown, P. Wang, S. J. Plimpton, A. N. Tharrington},
 title = {Implementing Molecular Dynamics on Hybrid High Performance Computers - Short Range Forces},
 journal = {Comp.~Phys.~Comm.},
 year =    2011,
 volume =  182,
 pages =   {898--911}
}

@Article{Brown12,
 author = {W. M. Brown, A. Kohlmeyer, S. J. Plimpton, A. N. Tharrington},
 title = {Implementing Molecular Dynamics on Hybrid High Performance Computers - Particle-Particle Particle-Mesh},
 journal = {Comp.~Phys.~Comm.},
 year =    2012,
 volume =  183,
 pages =   {449--459}
}

@Article{Brown13,
 author = {W. M. Brown, Y. Masako},
 title = {Implementing Molecular Dynamics on Hybrid High Performance Computers â€“ Three-Body Potentials},
 journal = {Comp.~Phys.~Comm.},
 year =    2013,
 volume =  184,
 pages =   {2785--2793}
}

@Article{Trung15,
 author = {T. D. Nguyen, S. J. Plimpton},
 title = {Accelerating dissipative particle dynamics simulations for soft matter systems},
 journal = {Comput.~Mater.~Sci.},
 year =    2015,
 volume =  100,
 pages =   {173--180}
}

@Article{Trung17,
 author = {T. D. Nguyen},
 title = {GPU-accelerated Tersoff potentials for massively parallel Molecular Dynamics simulations},
 journal = {Comp.~Phys.~Comm.},
 year =    2017,
 volume =  212,
 pages =   {113--122}
}

@Article{Nikolskiy19,
 author = {V. Nikolskiy, V. Stegailov},
 title = {GPU acceleration of four-site water models in LAMMPS},
 journal = {Proceeding of the International Conference on Parallel Computing (ParCo 2019), Prague, Czech Republic},
 year =    2019
}

CITE-CITE-CITE-CITE-CITE-CITE-CITE-CITE-CITE-CITE-CITE-CITE-CITE

  generated 0 of 1 mixed pair_coeff terms from geometric mixing rule
Step          Temp          PotEng         TotEng          Temp          Volume         Press           Pxx            Pyy            Pzz            Pxz             Lx             Ly             Lz          Enthalpy
0   1.2           -2.5836417     -0.78371673     1.2            21050.758      1.3773758      1.3685501      1.3750998      1.3884775     -0.027247187    19.222126      19.066603      57.437163      0.4244001
Averages over the last 5001 of 10001 rows, steps 500000 to 1000000:
Temp PotEng TotEng Temp Volume Press Pxx Pyy Pzz Pxz Lx Ly Lz Enthalpy
0.312192 -2.07628 -1.60801 0.312192 21050.8 1.94318 1.93957 1.95962 1.93036 -0.0111253 19.2221 19.0666 57.4372 0.0963842
Loop time of 305.678 on 6 procs for 1000000 steps with 24000 atoms

write_data	glass.readdata
System init for write_data ...
  generated 0 of 1 mixed pair_coeff terms from geometric mixing rule
log             log.mech
